
  Mrv1533009301517242D          

  0  0  0     0  0            999 V3000
M  V30 BEGIN CTAB
M  V30 COUNTS 31 33 0 0 0
M  V30 BEGIN ATOM
M  V30 1 C 13.0969 -1.3319 0 0
M  V30 2 O 13.8738 -2.6638 0 0
M  V30 3 C 11.5569 -1.3319 0 0
M  V30 4 O 13.8738 0 0 0
M  V30 5 C 10.7938 -2.6638 0 0
M  V30 6 C 10.7938 0 0 0
M  V30 7 C 9.2538 -2.6638 0 0
M  V30 8 C 9.2538 0 0 0
M  V30 9 C 8.463 -1.3319 0 0
M  V30 10 N 8.463 -4.0095 0 0
M  V30 11 C 4.6477 -5.3275 0 0
M  V30 12 C 3.8569 -4.0095 0 0
M  V30 13 C 4.62 -2.6638 0 0
M  V30 14 C 6.16 -2.6638 0 0
M  V30 15 C 6.9508 -4.0095 0 0
M  V30 16 C 6.1877 -5.3275 0 0
M  V30 17 O 3.8569 -6.6594 0 0
M  V30 18 C 4.6477 -8.0052 0 0
M  V30 19 F 6.1877 -8.0052 0 0
M  V30 20 F 3.8569 -9.3371 0 0
M  V30 21 O 2.3169 -4.0095 0 0
M  V30 22 C 1.54 -2.6638 0 0
M  V30 23 F 2.3169 -1.3319 0 0
M  V30 24 F 0 -2.6638 0 0
M  V30 25 C 9.2538 -5.3275 0 0
M  V30 26 N 13.1108 -6.6594 0 0
M  V30 27 C 13.8738 -5.3275 0 0
M  V30 28 C 11.5708 -6.6594 0 0
M  V30 29 C 10.7938 -5.3275 0 0
M  V30 30 C 13.0969 -4.0095 0 0
M  V30 31 C 11.5569 -4.0095 0 0
M  V30 END ATOM
M  V30 BEGIN BOND
M  V30 1 2 1 2
M  V30 2 1 1 3
M  V30 3 1 1 4
M  V30 4 2 3 5
M  V30 5 1 3 6
M  V30 6 1 5 7
M  V30 7 2 6 8
M  V30 8 2 7 9
M  V30 9 1 7 10
M  V30 10 1 8 9
M  V30 11 1 10 15
M  V30 12 1 10 25
M  V30 13 2 11 16
M  V30 14 1 11 12
M  V30 15 1 11 17
M  V30 16 2 12 13
M  V30 17 1 12 21
M  V30 18 1 13 14
M  V30 19 2 14 15
M  V30 20 1 15 16
M  V30 21 1 17 18
M  V30 22 1 18 19
M  V30 23 1 18 20
M  V30 24 1 21 22
M  V30 25 1 22 23
M  V30 26 1 22 24
M  V30 27 1 25 29
M  V30 28 2 26 27
M  V30 29 1 26 28
M  V30 30 1 27 30
M  V30 31 2 28 29
M  V30 32 1 29 31
M  V30 33 2 30 31
M  V30 END BOND
M  V30 END CTAB
M  END
