
  Mrv1533009301517242D          

  0  0  0     0  0            999 V3000
M  V30 BEGIN CTAB
M  V30 COUNTS 28 30 0 0 1
M  V30 BEGIN ATOM
M  V30 1 C 1.3172 -6.0383 0 0
M  V30 2 C 2.6172 -6.8593 0 0
M  V30 3 C 3.9171 -6.0383 0 0 CFG=2
M  V30 4 C 5.2343 -6.8593 0 0
M  V30 5 C 6.6028 -6.0383 0 0
M  V30 6 C 7.9199 -6.8593 0 0
M  V30 7 C 9.237 -6.0383 0 0
M  V30 8 C 10.5541 -6.8593 0 0
M  V30 9 C 11.8713 -6.0383 0 0
M  V30 10 O 1.3172 -4.5672 0 0
M  V30 11 O 0 -6.8593 0 0
M  V30 12 N 2.6685 -2.275 0 0
M  V30 13 N 5.3027 -2.275 0 0
M  V30 14 C 3.9171 -1.5395 0 0
M  V30 15 C 3.9171 -4.5672 0 0
M  V30 16 C 2.6172 -3.8146 0 0
M  V30 17 C 5.2343 -3.8146 0 0
M  V30 18 C 3.9171 0 0 0
M  V30 19 N 13.2398 -8.3989 0 0
M  V30 20 C 13.1884 -6.8593 0 0
M  V30 21 C 14.4885 -6.0383 0 0
M  V30 22 C 15.8569 -6.8593 0 0
M  V30 23 C 15.8569 -8.3989 0 0
M  V30 24 C 17.1056 -9.1344 0 0
M  V30 25 C 17.1056 -10.6055 0 0
M  V30 26 C 15.7884 -11.4095 0 0
M  V30 27 N 14.4885 -10.6055 0 0
M  V30 28 C 14.4885 -9.1344 0 0
M  V30 END ATOM
M  V30 BEGIN BOND
M  V30 1 1 1 2
M  V30 2 1 1 11
M  V30 3 2 1 10
M  V30 4 1 2 3
M  V30 5 1 3 4 CFG=1
M  V30 6 1 3 15
M  V30 7 1 4 5
M  V30 8 1 5 6
M  V30 9 1 6 7
M  V30 10 1 7 8
M  V30 11 1 8 9
M  V30 12 1 9 20
M  V30 13 2 12 14
M  V30 14 1 12 16
M  V30 15 1 13 14
M  V30 16 2 13 17
M  V30 17 1 14 18
M  V30 18 2 15 16
M  V30 19 1 15 17
M  V30 20 2 19 20
M  V30 21 1 19 28
M  V30 22 1 20 21
M  V30 23 2 21 22
M  V30 24 1 22 23
M  V30 25 1 23 24
M  V30 26 2 23 28
M  V30 27 1 24 25
M  V30 28 1 25 26
M  V30 29 1 26 27
M  V30 30 1 27 28
M  V30 END BOND
M  V30 END CTAB
M  END
