
  Mrv1533009301517242D          

  0  0  0     0  0            999 V3000
M  V30 BEGIN CTAB
M  V30 COUNTS 28 29 0 0 0
M  V30 BEGIN ATOM
M  V30 1 Cl 16.2084 -3.0796 0 0
M  V30 2 C 2.1071 -0.2108 0 0
M  V30 3 C 1.329 -1.5398 0 0
M  V30 4 C 0.5672 -2.8851 0 0
M  V30 5 O 0 -0.778 0 0
M  V30 6 C 2.6744 -2.3178 0 0
M  V30 7 N 4.0035 -1.5398 0 0
M  V30 8 C 5.3488 -2.3178 0 0
M  V30 9 N 5.3488 -3.8414 0 0
M  V30 10 C 6.6779 -4.6194 0 0
M  V30 11 C 7.9907 -3.8414 0 0
M  V30 12 C 7.9907 -2.3178 0 0
M  V30 13 N 6.6779 -1.5398 0 0
M  V30 14 N 9.3361 -1.5398 0 0
M  V30 15 C 9.3361 0 0 0
M  V30 16 C 10.6651 -2.3178 0 0
M  V30 17 O 11.9943 -1.5398 0 0
M  V30 18 C 10.6651 -3.8414 0 0
M  V30 19 C 9.3361 -4.6194 0 0
M  V30 20 O 9.3361 -6.1592 0 0
M  V30 21 C 10.6651 -6.921 0 0
M  V30 22 C 10.6651 -8.4607 0 0
M  V30 23 C 11.9943 -9.2387 0 0
M  V30 24 C 13.3395 -8.4607 0 0
M  V30 25 F 14.6686 -9.2387 0 0
M  V30 26 C 13.3395 -6.921 0 0
M  V30 27 C 11.9943 -6.1592 0 0
M  V30 28 F 11.9943 -4.6194 0 0
M  V30 END ATOM
M  V30 BEGIN BOND
M  V30 1 1 2 3
M  V30 2 1 3 4
M  V30 3 1 3 5
M  V30 4 1 3 6
M  V30 5 1 6 7
M  V30 6 1 7 8
M  V30 7 1 8 9
M  V30 8 2 8 13
M  V30 9 2 9 10
M  V30 10 1 10 11
M  V30 11 2 11 12
M  V30 12 1 11 19
M  V30 13 1 12 13
M  V30 14 1 12 14
M  V30 15 1 14 15
M  V30 16 1 14 16
M  V30 17 2 16 17
M  V30 18 1 16 18
M  V30 19 2 18 19
M  V30 20 1 19 20
M  V30 21 1 20 21
M  V30 22 1 21 22
M  V30 23 2 21 27
M  V30 24 2 22 23
M  V30 25 1 23 24
M  V30 26 1 24 25
M  V30 27 2 24 26
M  V30 28 1 26 27
M  V30 29 1 27 28
M  V30 END BOND
M  V30 END CTAB
M  END
