
  Mrv1611111201709492D          

  0  0  0     0  0            999 V3000
M  V30 BEGIN CTAB
M  V30 COUNTS 25 26 0 0 0
M  V30 BEGIN ATOM
M  V30 1 C 6.8587 -2.654 0 0
M  V30 2 O 7.624 -3.9661 0 0
M  V30 3 C 5.3577 -2.654 0 0
M  V30 4 O 7.624 -1.332 0 0
M  V30 5 N 4.5824 -3.9661 0 0
M  V30 6 C 4.5824 -1.332 0 0
M  V30 7 C 3.0616 -3.9661 0 0
M  V30 8 O 2.2961 -2.654 0 0
M  V30 9 C 2.2961 -5.308 0 0
M  V30 10 C 3.0616 -6.6002 0 0
M  V30 11 C 0.7554 -5.308 0 0
M  V30 12 C 2.2961 -7.9421 0 0
M  V30 13 C 0 -6.6002 0 0
M  V30 14 C 0.7554 -7.9421 0 0
M  V30 15 C 5.3577 -5.308 0 0
M  V30 16 C 6.8587 -5.308 0 0
M  V30 17 C 4.5824 -6.6002 0 0
M  V30 18 C 7.624 -6.6002 0 0
M  V30 19 C 5.3577 -7.9421 0 0
M  V30 20 C 6.8587 -7.9421 0 0
M  V30 21 Cl 9.1647 -6.6002 0 0
M  V30 22 F 7.624 -9.2542 0 0
M  V30 23 C 9.1647 -1.332 0 0
M  V30 24 C 9.94 0 0 0
M  V30 25 C 9.94 -2.6739 0 0
M  V30 END ATOM
M  V30 BEGIN BOND
M  V30 1 2 1 2
M  V30 2 1 1 3
M  V30 3 1 1 4
M  V30 4 1 3 5
M  V30 5 1 3 6
M  V30 6 1 4 23
M  V30 7 1 5 7
M  V30 8 1 5 15
M  V30 9 2 7 8
M  V30 10 1 7 9
M  V30 11 2 9 10
M  V30 12 1 9 11
M  V30 13 1 10 12
M  V30 14 2 11 13
M  V30 15 2 12 14
M  V30 16 1 13 14
M  V30 17 2 15 16
M  V30 18 1 15 17
M  V30 19 1 16 18
M  V30 20 2 17 19
M  V30 21 2 18 20
M  V30 22 1 18 21
M  V30 23 1 19 20
M  V30 24 1 20 22
M  V30 25 1 23 24
M  V30 26 1 23 25
M  V30 END BOND
M  V30 END CTAB
M  END
