
  Mrv1533009301517242D          

  0  0  0     0  0            999 V3000
M  V30 BEGIN CTAB
M  V30 COUNTS 21 22 0 0 0
M  V30 BEGIN ATOM
M  V30 1 C 5.352 -2.6398 0 0
M  V30 2 O 5.352 -1.0878 0 0
M  V30 3 C 4.0031 -3.423 0 0
M  V30 4 C 4.0031 -4.9605 0 0
M  V30 5 C 2.6833 -2.6398 0 0
M  V30 6 C 2.6833 -5.7292 0 0
M  V30 7 C 1.3488 -3.423 0 0
M  V30 8 C 1.3488 -4.9605 0 0
M  V30 9 N 6.6864 -3.423 0 0
M  V30 10 Br 5.352 -5.7292 0 0
M  V30 11 F 0 -5.7292 0 0
M  V30 12 S 8.0353 -2.6398 0 0
M  V30 13 O 8.8185 -3.9742 0 0
M  V30 14 O 7.2666 -1.2908 0 0
M  V30 15 C 9.3842 -1.871 0 0
M  V30 16 C 10.7186 -2.6398 0 0
M  V30 17 S 12.2124 -0.3191 0 0
M  V30 18 C 13.7355 0 0 0
M  V30 19 C 12.0674 -1.871 0 0
M  V30 20 C 13.4743 -2.4802 0 0
M  V30 21 C 14.5042 -1.3488 0 0
M  V30 END ATOM
M  V30 BEGIN BOND
M  V30 1 2 1 2
M  V30 2 1 1 3
M  V30 3 1 1 9
M  V30 4 2 3 4
M  V30 5 1 3 5
M  V30 6 1 4 6
M  V30 7 1 4 10
M  V30 8 2 5 7
M  V30 9 2 6 8
M  V30 10 1 7 8
M  V30 11 1 8 11
M  V30 12 1 9 12
M  V30 13 2 12 13
M  V30 14 2 12 14
M  V30 15 1 12 15
M  V30 16 2 15 16
M  V30 17 1 16 19
M  V30 18 1 17 18
M  V30 19 1 17 19
M  V30 20 2 18 21
M  V30 21 2 19 20
M  V30 22 1 20 21
M  V30 END BOND
M  V30 END CTAB
M  END
