
  Mrv1533009301517242D          

  0  0  0     0  0            999 V3000
M  V30 BEGIN CTAB
M  V30 COUNTS 25 28 0 0 0
M  V30 BEGIN ATOM
M  V30 1 N 6.9899 -0.4478 0 0
M  V30 2 C 8.3224 -1.1031 0 0
M  V30 3 C 8.6391 -2.6212 0 0
M  V30 4 N 7.678 -3.7681 0 0
M  V30 5 C 6.1599 -3.7681 0 0
M  V30 6 C 5.2097 -2.5448 0 0
M  V30 7 C 5.6029 -1.0594 0 0
M  V30 8 C 4.467 0 0 0
M  V30 9 C 2.9817 -0.4151 0 0
M  V30 10 C 2.5994 -1.9004 0 0
M  V30 11 C 3.7243 -2.9161 0 0
M  V30 12 N 9.6986 -0.3167 0 0
M  V30 13 N 10.889 -1.409 0 0
M  V30 14 C 10.2009 -2.8397 0 0
M  V30 15 C 5.4718 -7.8856 0 0
M  V30 16 C 3.9318 -7.8856 0 0
M  V30 17 C 3.1564 -6.553 0 0
M  V30 18 C 3.9318 -5.2206 0 0
M  V30 19 C 5.4718 -5.2206 0 0
M  V30 20 C 6.2254 -6.553 0 0
M  V30 21 Cl 7.7654 -6.553 0 0
M  V30 22 C 10.9218 -4.1612 0 0
M  V30 23 N 1.1358 -2.3373 0 0 CHG=1
M  V30 24 O 0 -1.2997 0 0 CHG=-1
M  V30 25 O 0.7645 -3.8445 0 0
M  V30 END ATOM
M  V30 BEGIN BOND
M  V30 1 1 1 2
M  V30 2 1 1 7
M  V30 3 1 2 3
M  V30 4 2 2 12
M  V30 5 1 3 4
M  V30 6 2 3 14
M  V30 7 2 4 5
M  V30 8 1 5 6
M  V30 9 1 5 19
M  V30 10 2 6 7
M  V30 11 1 6 11
M  V30 12 1 7 8
M  V30 13 2 8 9
M  V30 14 1 9 10
M  V30 15 2 10 11
M  V30 16 1 10 23
M  V30 17 1 12 13
M  V30 18 1 13 14
M  V30 19 1 14 22
M  V30 20 2 15 20
M  V30 21 1 15 16
M  V30 22 2 16 17
M  V30 23 1 17 18
M  V30 24 2 18 19
M  V30 25 1 19 20
M  V30 26 1 20 21
M  V30 27 1 23 24
M  V30 28 2 23 25
M  V30 END BOND
M  V30 END CTAB
M  END
