
  Mrv1533009301517242D          

  0  0  0     0  0            999 V3000
M  V30 BEGIN CTAB
M  V30 COUNTS 27 29 0 0 1
M  V30 BEGIN ATOM
M  V30 1 C 5.3283 -3.9156 0 0
M  V30 2 C 6.6542 -4.6963 0 0 CFG=2
M  V30 3 C 7.9924 -3.9156 0 0
M  V30 4 O 5.3283 -2.3792 0 0
M  V30 5 N 4.0024 -4.6963 0 0
M  V30 6 C 7.9924 -8.5377 0 0
M  V30 7 C 6.6542 -9.3059 0 0
M  V30 8 C 5.3283 -8.5377 0 0
M  V30 9 C 5.3283 -6.9887 0 0
M  V30 10 C 6.6542 -6.2328 0 0
M  V30 11 C 7.9924 -6.9887 0 0
M  V30 12 Cl 9.3307 -9.3059 0 0
M  V30 13 S 6.6542 -10.8549 0 0
M  V30 14 O 5.1176 -10.8549 0 0
M  V30 15 O 8.2031 -10.8549 0 0
M  V30 16 C 6.6542 -12.3913 0 0
M  V30 17 C 7.9924 -2.3792 0 0
M  V30 18 C 6.7533 -1.4622 0 0
M  V30 19 C 7.2365 0 0 0
M  V30 20 C 8.7731 0 0 0
M  V30 21 C 9.244 -1.4622 0 0
M  V30 22 N 2.6766 -2.3792 0 0
M  V30 23 N 0 -3.9156 0 0
M  V30 24 C 2.6766 -3.9156 0 0
M  V30 25 C 0 -2.3792 0 0
M  V30 26 C 1.3382 -4.6963 0 0
M  V30 27 C 1.3382 -1.6109 0 0
M  V30 END ATOM
M  V30 BEGIN BOND
M  V30 1 1 1 2
M  V30 2 1 1 5
M  V30 3 2 1 4
M  V30 4 1 2 3 CFG=3
M  V30 5 1 2 10
M  V30 6 1 3 17
M  V30 7 1 5 24
M  V30 8 2 6 11
M  V30 9 1 6 7
M  V30 10 1 6 12
M  V30 11 2 7 8
M  V30 12 1 7 13
M  V30 13 1 8 9
M  V30 14 2 9 10
M  V30 15 1 10 11
M  V30 16 2 13 14
M  V30 17 2 13 15
M  V30 18 1 13 16
M  V30 19 1 17 18
M  V30 20 1 17 21
M  V30 21 1 18 19
M  V30 22 1 19 20
M  V30 23 1 20 21
M  V30 24 2 22 24
M  V30 25 1 22 27
M  V30 26 1 23 25
M  V30 27 2 23 26
M  V30 28 1 24 26
M  V30 29 2 25 27
M  V30 END BOND
M  V30 END CTAB
M  END
