
  Mrv1533009301517242D          

  0  0  0     0  0            999 V3000
M  V30 BEGIN CTAB
M  V30 COUNTS 43 47 0 0 0
M  V30 BEGIN ATOM
M  V30 1 C 0 -6.072 0 0
M  V30 2 C 0.9255 -4.8531 0 0
M  V30 3 O 2.4378 -4.9885 0 0
M  V30 4 C 3.3633 -3.7471 0 0
M  V30 5 C 2.7538 -2.3249 0 0
M  V30 6 C 3.6341 -1.0835 0 0
M  V30 7 C 5.1691 -1.2415 0 0
M  V30 8 C 5.7785 -2.6636 0 0
M  V30 9 C 4.8982 -3.905 0 0
M  V30 10 N 7.336 -2.799 0 0
M  V30 11 C 8.3744 -1.6704 0 0
M  V30 12 C 9.7738 -2.3024 0 0
M  V30 13 N 9.5933 -3.8373 0 0
M  V30 14 C 8.126 -4.1533 0 0
M  V30 15 C 7.494 -5.5528 0 0
M  V30 16 C 8.3744 -6.7943 0 0
M  V30 17 C 7.7649 -8.2164 0 0
M  V30 18 C 6.2074 -8.3744 0 0
M  V30 19 C 5.5754 -9.7738 0 0
M  V30 20 C 5.3046 -7.1329 0 0
M  V30 21 C 5.9366 -5.7334 0 0
M  V30 22 C 11.0831 -1.5124 0 0
M  V30 23 O 11.0831 0 0 0
M  V30 24 N 12.4374 -2.3024 0 0
M  V30 25 C 13.7692 -1.5124 0 0
M  V30 26 C 15.101 -2.3024 0 0
M  V30 27 N 15.101 -3.8373 0 0
M  V30 28 C 13.7692 -4.6273 0 0
M  V30 29 C 12.4374 -3.8599 0 0
M  V30 30 C 16.4553 -4.6273 0 0
M  V30 31 C 17.7646 -3.8373 0 0
M  V30 32 C 19.1189 -4.6273 0 0
M  V30 33 C 20.4733 -3.8373 0 0
M  V30 34 O 21.7599 -4.6273 0 0
M  V30 35 O 20.4733 -2.2798 0 0 CHG=-1
M  V30 36 C 19.1189 -6.1623 0 0
M  V30 37 C 20.4507 -6.9071 0 0
M  V30 38 C 20.4507 -8.4647 0 0
M  V30 39 C 19.0963 -9.2548 0 0
M  V30 40 C 17.7646 -8.4647 0 0
M  V30 41 C 17.7646 -6.9071 0 0
M  V30 42 C 16.4553 -6.1623 0 0
M  V30 43 Na 22.5724 -2.7087 0 0 CHG=1
M  V30 END ATOM
M  V30 BEGIN BOND
M  V30 1 1 1 2
M  V30 2 1 2 3
M  V30 3 1 3 4
M  V30 4 1 4 5
M  V30 5 2 4 9
M  V30 6 2 5 6
M  V30 7 1 6 7
M  V30 8 2 7 8
M  V30 9 1 8 9
M  V30 10 1 8 10
M  V30 11 1 10 11
M  V30 12 1 10 14
M  V30 13 2 11 12
M  V30 14 1 12 13
M  V30 15 1 12 22
M  V30 16 2 13 14
M  V30 17 1 14 15
M  V30 18 1 15 16
M  V30 19 2 15 21
M  V30 20 2 16 17
M  V30 21 1 17 18
M  V30 22 1 18 19
M  V30 23 2 18 20
M  V30 24 1 20 21
M  V30 25 2 22 23
M  V30 26 1 22 24
M  V30 27 1 24 25
M  V30 28 1 24 29
M  V30 29 1 25 26
M  V30 30 1 26 27
M  V30 31 1 27 28
M  V30 32 1 27 30
M  V30 33 1 28 29
M  V30 34 1 30 31
M  V30 35 2 30 42
M  V30 36 2 31 32
M  V30 37 1 32 33
M  V30 38 1 32 36
M  V30 39 2 33 34
M  V30 40 1 33 35
M  V30 41 2 36 37
M  V30 42 1 36 41
M  V30 43 1 37 38
M  V30 44 2 38 39
M  V30 45 1 39 40
M  V30 46 2 40 41
M  V30 47 1 41 42
M  V30 END BOND
M  V30 END CTAB
M  END
