
  Mrv1533009301517242D          

  0  0  0     0  0            999 V3000
M  V30 BEGIN CTAB
M  V30 COUNTS 45 49 0 0 0
M  V30 BEGIN ATOM
M  V30 1 C 0.6202 -12.9184 0 0
M  V30 2 C 1.0908 -14.3728 0 0
M  V30 3 C 2.6093 -14.6936 0 0
M  V30 4 C 3.6146 -13.5387 0 0
M  V30 5 C 5.1332 -13.8594 0 0
M  V30 6 S 6.1598 -12.7045 0 0
M  V30 7 C 5.6892 -11.2501 0 0
M  V30 8 C 6.7158 -10.0951 0 0
M  V30 9 S 6.2239 -8.6194 0 0
M  V30 10 C 7.4858 -7.7211 0 0
M  V30 11 N 8.7264 -8.6194 0 0
M  V30 12 C 8.2558 -10.0951 0 0
M  V30 13 C 9.0258 -11.4212 0 0
M  V30 14 N 10.5444 -11.4212 0 0
M  V30 15 C 11.3357 -10.0951 0 0
M  V30 16 C 12.8756 -10.0951 0 0
M  V30 17 N 13.6456 -11.4212 0 0
M  V30 18 C 12.8756 -12.7687 0 0
M  V30 19 C 11.3357 -12.7687 0 0
M  V30 20 C 15.1856 -11.4212 0 0
M  V30 21 C 15.9555 -10.0951 0 0
M  V30 22 C 17.4955 -10.0951 0 0
M  V30 23 C 18.2655 -11.4212 0 0
M  V30 24 O 19.8053 -11.4212 0 0
M  V30 25 C 20.5753 -10.0951 0 0
M  V30 26 C 17.4955 -12.7687 0 0
M  V30 27 C 15.9555 -12.7687 0 0
M  V30 28 C 7.4858 -6.1598 0 0
M  V30 29 C 8.8118 -5.4112 0 0
M  V30 30 C 8.8118 -3.8712 0 0
M  V30 31 C 7.4858 -3.0799 0 0
M  V30 32 C 6.1598 -3.8712 0 0
M  V30 33 C 6.1598 -5.4112 0 0
M  V30 34 C 7.4858 -1.5399 0 0
M  V30 35 F 5.9459 -1.5399 0 0
M  V30 36 F 9.0258 -1.5399 0 0
M  V30 37 F 7.4858 0 0 0
M  V30 38 C 5.6037 -15.3138 0 0
M  V30 39 C 4.5985 -16.4689 0 0
M  V30 40 C 3.0799 -16.148 0 0
M  V30 41 O 2.0533 -17.3029 0 0
M  V30 42 C 2.5452 -18.7573 0 0
M  V30 43 C 1.4971 -19.9123 0 0
M  V30 44 O 0 -19.6128 0 0
M  V30 45 O 1.9891 -21.3881 0 0
M  V30 END ATOM
M  V30 BEGIN BOND
M  V30 1 1 1 2
M  V30 2 1 2 3
M  V30 3 1 3 4
M  V30 4 2 3 40
M  V30 5 2 4 5
M  V30 6 1 5 6
M  V30 7 1 5 38
M  V30 8 1 6 7
M  V30 9 1 7 8
M  V30 10 1 8 9
M  V30 11 2 8 12
M  V30 12 1 9 10
M  V30 13 2 10 11
M  V30 14 1 10 28
M  V30 15 1 11 12
M  V30 16 1 12 13
M  V30 17 1 13 14
M  V30 18 1 14 15
M  V30 19 1 14 19
M  V30 20 1 15 16
M  V30 21 1 16 17
M  V30 22 1 17 18
M  V30 23 1 17 20
M  V30 24 1 18 19
M  V30 25 1 20 21
M  V30 26 2 20 27
M  V30 27 2 21 22
M  V30 28 1 22 23
M  V30 29 1 23 24
M  V30 30 2 23 26
M  V30 31 1 24 25
M  V30 32 1 26 27
M  V30 33 1 28 29
M  V30 34 2 28 33
M  V30 35 2 29 30
M  V30 36 1 30 31
M  V30 37 2 31 32
M  V30 38 1 31 34
M  V30 39 1 32 33
M  V30 40 1 34 35
M  V30 41 1 34 36
M  V30 42 1 34 37
M  V30 43 2 38 39
M  V30 44 1 39 40
M  V30 45 1 40 41
M  V30 46 1 41 42
M  V30 47 1 42 43
M  V30 48 2 43 44
M  V30 49 1 43 45
M  V30 END BOND
M  V30 END CTAB
M  END
