
  Mrv1611102081713322D          

  0  0  0     0  0            999 V3000
M  V30 BEGIN CTAB
M  V30 COUNTS 30 33 0 0 1
M  V30 BEGIN ATOM
M  V30 1 C -2.6843 -1.9373 0 0 CFG=2
M  V30 2 C -1.5954 -0.8484 0 0 CFG=2
M  V30 3 C -2.6843 -3.4694 0 0 CFG=2
M  V30 4 C -1.5954 -4.5457 0 0
M  V30 5 C -0.0886 -0.8484 0 0 CFG=2
M  V30 6 N -0.0886 -4.5457 0 0
M  V30 7 C 1.013 -1.9373 0 0
M  V30 8 C 1.013 -3.4694 0 0
M  V30 9 C 2.3424 -1.1649 0 0
M  V30 10 C 3.6719 -1.9373 0 0
M  V30 11 C 2.3424 -4.2291 0 0
M  V30 12 C 3.6719 -3.4694 0 0
M  V30 13 N -4.0265 -2.697 0 0
M  V30 14 C -5.5586 -2.697 0 0
M  V30 15 C -6.331 -1.3675 0 0
M  V30 16 O -6.331 -4.0265 0 0
M  V30 17 C 5.0015 -4.2291 0 0
M  V30 18 O 6.331 -3.4694 0 0
M  V30 19 O 2.3424 0.3672 0 0
M  V30 20 C 3.6719 1.1269 0 0
M  V30 21 O -0.0886 -2.5451 0 0
M  V30 22 O -2.1905 0.5698 0 0
M  V30 23 C 0.5065 0.5698 0 0
M  V30 24 O -0.2659 1.8866 0 0
M  V30 25 C 0.4938 3.2414 0 0
M  V30 26 N -0.3039 4.5457 0 0
M  V30 27 O 2.0259 3.2541 0 0
M  V30 28 C -3.7226 0.7723 0 0
M  V30 29 C -4.2925 2.1778 0 0
M  V30 30 O -4.6469 -0.4432 0 0
M  V30 END ATOM
M  V30 BEGIN BOND
M  V30 1 1 2 1
M  V30 2 1 1 13 CFG=3
M  V30 3 1 3 1
M  V30 4 1 5 2
M  V30 5 1 21 2
M  V30 6 1 2 22 CFG=1
M  V30 7 1 4 3
M  V30 8 1 3 13 CFG=3
M  V30 9 1 6 4
M  V30 10 1 7 5
M  V30 11 1 5 23 CFG=1
M  V30 12 1 8 6
M  V30 13 1 21 6
M  V30 14 1 9 7
M  V30 15 2 8 7
M  V30 16 1 11 8
M  V30 17 2 10 9
M  V30 18 1 19 9
M  V30 19 1 12 10
M  V30 20 2 12 11
M  V30 21 1 17 12
M  V30 22 1 14 13
M  V30 23 1 15 14
M  V30 24 2 16 14
M  V30 25 2 18 17
M  V30 26 1 20 19
M  V30 27 1 28 22
M  V30 28 1 24 23
M  V30 29 1 25 24
M  V30 30 1 26 25
M  V30 31 2 27 25
M  V30 32 1 29 28
M  V30 33 2 30 28
M  V30 END BOND
M  V30 END CTAB
M  END
