
  Mrv1533009301517242D          

  0  0  0     0  0            999 V3000
M  V30 BEGIN CTAB
M  V30 COUNTS 21 23 0 0 0
M  V30 BEGIN ATOM
M  V30 1 C 4.2202 -3.9616 0 0
M  V30 2 C 3.9029 -5.4781 0 0
M  V30 3 N 5.5722 -3.3034 0 0
M  V30 4 C 2.8449 -3.1741 0 0
M  V30 5 N 2.3394 -5.6663 0 0
M  V30 6 C 4.8433 -6.6537 0 0
M  V30 7 C 6.9476 -3.9263 0 0
M  V30 8 N 1.6929 -4.232 0 0
M  V30 9 C 2.6921 -1.6693 0 0
M  V30 10 C 1.54 -6.9711 0 0
M  V30 11 N 6.3716 -6.5715 0 0
M  V30 12 O 4.2555 -8.0996 0 0
M  V30 13 C 8.1702 -2.9389 0 0
M  V30 14 C 7.2768 -5.4077 0 0
M  V30 15 C 0 -6.9829 0 0
M  V30 16 C 9.6161 -3.4796 0 0
M  V30 17 C 7.935 -1.4106 0 0
M  V30 18 C 10.8035 -2.5039 0 0
M  V30 19 C 9.1224 -0.4467 0 0
M  V30 20 C 10.5684 -0.9874 0 0
M  V30 21 O 11.7557 0 0 0
M  V30 END ATOM
M  V30 BEGIN BOND
M  V30 1 2 1 2
M  V30 2 1 1 3
M  V30 3 1 1 4
M  V30 4 1 2 5
M  V30 5 1 2 6
M  V30 6 2 3 7
M  V30 7 2 4 8
M  V30 8 1 4 9
M  V30 9 1 5 10
M  V30 10 1 5 8
M  V30 11 1 6 11
M  V30 12 2 6 12
M  V30 13 1 7 13
M  V30 14 1 7 14
M  V30 15 1 10 15
M  V30 16 1 11 14
M  V30 17 2 13 16
M  V30 18 1 13 17
M  V30 19 1 16 18
M  V30 20 2 17 19
M  V30 21 2 18 20
M  V30 22 1 19 20
M  V30 23 1 20 21
M  V30 END BOND
M  V30 END CTAB
M  END
