
  Mrv1533009301517242D          

  0  0  0     0  0            999 V3000
M  V30 BEGIN CTAB
M  V30 COUNTS 29 32 0 0 0
M  V30 BEGIN ATOM
M  V30 1 C 2.0969 0 0 0
M  V30 2 C 1.3381 -1.3381 0 0
M  V30 3 C 0.5518 -2.6763 0 0
M  V30 4 O 0 -0.5518 0 0
M  V30 5 C 2.6625 -2.0969 0 0
M  V30 6 C 2.6625 -3.6419 0 0
M  V30 7 N 4.0006 -4.4282 0 0
M  V30 8 N 5.3387 -3.6419 0 0
M  V30 9 C 6.801 -4.1247 0 0
M  V30 10 C 7.7114 -2.8832 0 0
M  V30 11 N 6.801 -1.6416 0 0
M  V30 12 C 5.3387 -2.0969 0 0
M  V30 13 N 4.0006 -1.3381 0 0
M  V30 14 C 7.2838 -5.6008 0 0
M  V30 15 C 6.2492 -6.7458 0 0
M  V30 16 C 6.732 -8.1943 0 0
M  V30 17 C 8.2357 -8.5392 0 0
M  V30 18 F 8.7185 -10.0014 0 0
M  V30 19 C 9.2841 -7.3803 0 0
M  V30 20 C 8.7875 -5.9181 0 0
M  V30 21 C 10.7878 -7.6976 0 0
M  V30 22 C 11.243 -9.1599 0 0
M  V30 23 F 10.2222 -10.3187 0 0
M  V30 24 C 12.7743 -9.5048 0 0
M  V30 25 C 13.7951 -8.3461 0 0
M  V30 26 C 13.3122 -6.8838 0 0
M  V30 27 C 11.8086 -6.5665 0 0
M  V30 28 C 11.3395 -5.0903 0 0
M  V30 29 N 10.8568 -3.6281 0 0
M  V30 END ATOM
M  V30 BEGIN BOND
M  V30 1 1 1 2
M  V30 2 1 2 3
M  V30 3 1 2 4
M  V30 4 1 2 5
M  V30 5 1 5 6
M  V30 6 2 5 13
M  V30 7 2 6 7
M  V30 8 1 7 8
M  V30 9 1 8 9
M  V30 10 1 8 12
M  V30 11 2 9 10
M  V30 12 1 9 14
M  V30 13 1 10 11
M  V30 14 2 11 12
M  V30 15 1 12 13
M  V30 16 1 14 15
M  V30 17 2 14 20
M  V30 18 2 15 16
M  V30 19 1 16 17
M  V30 20 1 17 18
M  V30 21 2 17 19
M  V30 22 1 19 20
M  V30 23 1 19 21
M  V30 24 1 21 22
M  V30 25 2 21 27
M  V30 26 1 22 23
M  V30 27 2 22 24
M  V30 28 1 24 25
M  V30 29 2 25 26
M  V30 30 1 26 27
M  V30 31 1 27 28
M  V30 32 3 28 29
M  V30 END BOND
M  V30 END CTAB
M  END
