
  Mrv1533009301517242D          

  0  0  0     0  0            999 V3000
M  V30 BEGIN CTAB
M  V30 COUNTS 32 36 0 0 0
M  V30 BEGIN ATOM
M  V30 1 N 9.3372 -3.8388 0 0
M  V30 2 N 7.9975 -1.5395 0 0
M  V30 3 C 9.3372 -2.3193 0 0
M  V30 4 C 6.6579 -3.8388 0 0
M  V30 5 C 7.9975 -4.6186 0 0
M  V30 6 C 6.6579 -2.3193 0 0
M  V30 7 N 3.9988 -3.8388 0 0
M  V30 8 N 5.3184 -1.5395 0 0
M  V30 9 C 3.9988 -2.3193 0 0
M  V30 10 C 5.3184 -4.6186 0 0
M  V30 11 O 2.6791 -1.5395 0 0
M  V30 12 C 0 -4.6186 0 0
M  V30 13 C 0 -6.1581 0 0
M  V30 14 C 1.3396 -6.9179 0 0
M  V30 15 C 2.6791 -6.1581 0 0
M  V30 16 C 2.6791 -4.6186 0 0
M  V30 17 C 1.3396 -3.8388 0 0
M  V30 18 Br 1.3396 -2.3193 0 0
M  V30 19 N 10.6567 -1.5395 0 0
M  V30 20 O 15.9751 -1.5395 0 0
M  V30 21 C 17.3147 -2.3193 0 0
M  V30 22 C 17.3147 -3.8388 0 0
M  V30 23 O 15.9751 -4.6186 0 0
M  V30 24 C 14.6554 -3.8388 0 0
M  V30 25 C 14.6554 -2.3193 0 0
M  V30 26 C 13.3159 -1.5395 0 0
M  V30 27 C 11.9963 -2.3193 0 0
M  V30 28 C 11.9963 -3.8388 0 0
M  V30 29 C 13.3159 -4.6186 0 0
M  V30 30 C 18.6543 -4.6186 0 0
M  V30 31 O 19.9938 -3.8388 0 0
M  V30 32 C 5.3184 0 0 0
M  V30 END ATOM
M  V30 BEGIN BOND
M  V30 1 2 1 3
M  V30 2 1 1 5
M  V30 3 1 2 3
M  V30 4 2 2 6
M  V30 5 1 3 19
M  V30 6 2 4 5
M  V30 7 1 4 6
M  V30 8 1 4 10
M  V30 9 1 6 8
M  V30 10 1 7 9
M  V30 11 1 7 10
M  V30 12 1 7 16
M  V30 13 1 8 9
M  V30 14 1 8 32
M  V30 15 2 9 11
M  V30 16 2 12 17
M  V30 17 1 12 13
M  V30 18 2 13 14
M  V30 19 1 14 15
M  V30 20 2 15 16
M  V30 21 1 16 17
M  V30 22 1 17 18
M  V30 23 1 19 27
M  V30 24 1 20 21
M  V30 25 1 20 25
M  V30 26 1 21 22
M  V30 27 1 22 23
M  V30 28 1 22 30
M  V30 29 1 23 24
M  V30 30 2 24 25
M  V30 31 1 24 29
M  V30 32 1 25 26
M  V30 33 2 26 27
M  V30 34 1 27 28
M  V30 35 2 28 29
M  V30 36 1 30 31
M  V30 END BOND
M  V30 END CTAB
M  END
