
  Mrv1533009301517242D          

  0  0  0     0  0            999 V3000
M  V30 BEGIN CTAB
M  V30 COUNTS 25 25 0 0 0
M  V30 BEGIN ATOM
M  V30 1 Na 6.3331 -5.0527 0 0 CHG=1
M  V30 2 N 6.6618 -3.8413 0 0 CHG=-1
M  V30 3 C 5.3295 -3.0627 0 0
M  V30 4 O 5.3295 -1.54 0 0
M  V30 5 C 2.6648 -6.1427 0 0
M  V30 6 C 1.3324 -5.3813 0 0
M  V30 7 C 1.3324 -3.8413 0 0
M  V30 8 C 2.6648 -3.0627 0 0
M  V30 9 C 3.9971 -3.8413 0 0
M  V30 10 C 3.9971 -5.3813 0 0
M  V30 11 Cl 5.3295 -6.1427 0 0
M  V30 12 C 0 -6.1427 0 0
M  V30 13 S 7.9942 -3.0627 0 0
M  V30 14 O 8.7555 -4.3951 0 0
M  V30 15 O 7.2155 -1.7649 0 0
M  V30 16 C 9.3266 -2.3187 0 0
M  V30 17 C 10.6589 -3.0627 0 0
M  V30 18 C 13.3064 0 0 0
M  V30 19 C 14.6388 -0.7787 0 0
M  V30 20 C 14.6388 -2.3187 0 0
M  V30 21 C 13.3064 -3.0627 0 0
M  V30 22 C 11.974 -2.3187 0 0
M  V30 23 C 11.974 -0.7787 0 0
M  V30 24 O 15.9712 0 0 0
M  V30 25 C 17.3035 -0.7787 0 0
M  V30 END ATOM
M  V30 BEGIN BOND
M  V30 1 1 2 3
M  V30 2 1 2 13
M  V30 3 2 3 4
M  V30 4 1 3 9
M  V30 5 2 5 10
M  V30 6 1 5 6
M  V30 7 2 6 7
M  V30 8 1 6 12
M  V30 9 1 7 8
M  V30 10 2 8 9
M  V30 11 1 9 10
M  V30 12 1 10 11
M  V30 13 2 13 14
M  V30 14 2 13 15
M  V30 15 1 13 16
M  V30 16 2 16 17
M  V30 17 1 17 22
M  V30 18 2 18 23
M  V30 19 1 18 19
M  V30 20 2 19 20
M  V30 21 1 19 24
M  V30 22 1 20 21
M  V30 23 2 21 22
M  V30 24 1 22 23
M  V30 25 1 24 25
M  V30 END BOND
M  V30 END CTAB
M  END
