
  Mrv1533009301517242D          

  0  0  0     0  0            999 V3000
M  V30 BEGIN CTAB
M  V30 COUNTS 30 33 0 0 1
M  V30 BEGIN ATOM
M  V30 1 C 9.3255 -3.0774 0 0
M  V30 2 O 7.9799 -2.3047 0 0
M  V30 3 N 9.3255 -4.6228 0 0
M  V30 4 C 10.6576 -5.3821 0 0
M  V30 5 C 7.9799 -5.3821 0 0
M  V30 6 C 10.6576 -6.9141 0 0
M  V30 7 C 7.9799 -6.9141 0 0
M  V30 8 C 9.3255 -7.7002 0 0
M  V30 9 N 9.3255 -9.2321 0 0
M  V30 10 C 5.3155 -9.9916 0 0
M  V30 11 C 5.3155 -11.5369 0 0
M  V30 12 C 3.9833 -9.2321 0 0
M  V30 13 C 3.9833 -12.3095 0 0
M  V30 14 C 6.6477 -12.3095 0 0
M  V30 15 C 6.6477 -9.2321 0 0
M  V30 16 C 7.9799 -9.9916 0 0 CFG=1
M  V30 17 C 7.9799 -11.5369 0 0
M  V30 18 C 2.6511 -11.5369 0 0
M  V30 19 C 2.6511 -9.9916 0 0
M  V30 20 O 1.3322 -9.2321 0 0
M  V30 21 C 0 -9.9916 0 0
M  V30 22 C 10.6576 -9.9916 0 0
M  V30 23 C 11.9898 -9.2321 0 0
M  V30 24 C 13.3221 -9.9916 0 0
M  V30 25 N 13.3221 -0.7726 0 0
M  V30 26 C 13.3221 -2.3047 0 0
M  V30 27 C 11.9898 0 0 0
M  V30 28 C 11.9898 -3.0774 0 0
M  V30 29 C 10.6576 -0.7726 0 0
M  V30 30 C 10.6576 -2.3047 0 0
M  V30 END ATOM
M  V30 BEGIN BOND
M  V30 1 2 1 2
M  V30 2 1 1 3
M  V30 3 1 1 30
M  V30 4 1 3 4
M  V30 5 1 3 5
M  V30 6 1 4 6
M  V30 7 1 5 7
M  V30 8 1 6 8
M  V30 9 1 7 8
M  V30 10 1 8 9
M  V30 11 1 16 9 CFG=3
M  V30 12 1 9 22
M  V30 13 2 10 11
M  V30 14 1 10 12
M  V30 15 1 10 15
M  V30 16 1 11 13
M  V30 17 1 11 14
M  V30 18 2 12 19
M  V30 19 2 13 18
M  V30 20 1 14 17
M  V30 21 1 15 16
M  V30 22 1 16 17
M  V30 23 1 18 19
M  V30 24 1 19 20
M  V30 25 1 20 21
M  V30 26 1 22 23
M  V30 27 1 23 24
M  V30 28 1 25 26
M  V30 29 1 25 27
M  V30 30 1 26 28
M  V30 31 1 27 29
M  V30 32 1 28 30
M  V30 33 1 29 30
M  V30 END BOND
M  V30 END CTAB
M  END
