
  Mrv1533009301517242D          

  0  0  0     0  0            999 V3000
M  V30 BEGIN CTAB
M  V30 COUNTS 43 46 0 0 1
M  V30 BEGIN ATOM
M  V30 1 C 4.0011 -6.9084 0 0
M  V30 2 C 4.0011 -8.4483 0 0
M  V30 3 C 2.4755 -8.4627 0 0
M  V30 4 O 2.6626 -6.1456 0 0
M  V30 5 N 5.3396 -6.1456 0 0
M  V30 6 C 2.6626 -12.3055 0 0
M  V30 7 C 4.0011 -13.0539 0 0
M  V30 8 C 5.3396 -12.3055 0 0
M  V30 9 C 5.3396 -10.7655 0 0
M  V30 10 C 4.0011 -9.9883 0 0
M  V30 11 C 2.6626 -10.7655 0 0
M  V30 12 C 1.3385 -13.0539 0 0
M  V30 13 F 2.1157 -14.3924 0 0
M  V30 14 F 0.5757 -11.7298 0 0
M  V30 15 F 0 -13.8311 0 0
M  V30 16 C 6.6637 -13.0539 0 0
M  V30 17 F 7.4265 -11.7298 0 0
M  V30 18 F 5.8865 -14.3924 0 0
M  V30 19 F 8.0022 -13.8311 0 0
M  V30 20 N 8.0022 -9.2255 0 0
M  V30 21 C 9.3407 -8.4483 0 0
M  V30 22 C 6.6637 -8.4483 0 0
M  V30 23 C 6.6637 -6.9084 0 0
M  V30 24 C 9.3407 -6.9084 0 0
M  V30 25 C 8.0022 -6.1456 0 0
M  V30 26 C 9.3407 -2.3028 0 0
M  V30 27 C 8.0022 -1.54 0 0
M  V30 28 C 6.6637 -2.3028 0 0
M  V30 29 C 6.6637 -3.8284 0 0
M  V30 30 C 8.0022 -4.6056 0 0
M  V30 31 C 9.3407 -3.8284 0 0
M  V30 32 F 8.0022 0 0 0
M  V30 33 C 10.6504 -4.6056 0 0
M  V30 34 N 10.6504 -9.2255 0 0
M  V30 35 C 10.8231 -10.7367 0 0 CFG=1
M  V30 36 C 12.0609 -8.5923 0 0
M  V30 37 C 12.3199 -11.0822 0 0 CFG=1
M  V30 38 C 13.0971 -9.7437 0 0
M  V30 39 O 12.9532 -12.4638 0 0
M  V30 40 C 9.6717 -11.7874 0 0
M  V30 41 O 10.0027 -13.2842 0 0
M  V30 42 C 5.3396 -4.6056 0 0
M  V30 43 C 5.2244 -8.4483 0 0
M  V30 END ATOM
M  V30 BEGIN BOND
M  V30 1 1 1 2
M  V30 2 1 1 5
M  V30 3 2 1 4
M  V30 4 1 2 3
M  V30 5 1 2 10
M  V30 6 1 2 43
M  V30 7 1 5 23
M  V30 8 1 5 42
M  V30 9 2 6 11
M  V30 10 1 6 7
M  V30 11 1 6 12
M  V30 12 2 7 8
M  V30 13 1 8 9
M  V30 14 1 8 16
M  V30 15 2 9 10
M  V30 16 1 10 11
M  V30 17 1 12 13
M  V30 18 1 12 14
M  V30 19 1 12 15
M  V30 20 1 16 17
M  V30 21 1 16 18
M  V30 22 1 16 19
M  V30 23 2 20 21
M  V30 24 1 20 22
M  V30 25 1 21 24
M  V30 26 1 21 34
M  V30 27 2 22 23
M  V30 28 1 23 25
M  V30 29 2 24 25
M  V30 30 1 25 30
M  V30 31 2 26 31
M  V30 32 1 26 27
M  V30 33 2 27 28
M  V30 34 1 27 32
M  V30 35 1 28 29
M  V30 36 2 29 30
M  V30 37 1 30 31
M  V30 38 1 31 33
M  V30 39 1 34 35
M  V30 40 1 34 36
M  V30 41 1 35 37
M  V30 42 1 35 40 CFG=1
M  V30 43 1 36 38
M  V30 44 1 37 38
M  V30 45 1 37 39 CFG=1
M  V30 46 1 40 41
M  V30 END BOND
M  V30 END CTAB
M  END
