
  Mrv1805 05272014052D          

  0  0  0     0  0            999 V3000
M  V30 BEGIN CTAB
M  V30 COUNTS 39 42 0 0 0
M  V30 BEGIN ATOM
M  V30 1 C 3.0249 -2.2097 0 0
M  V30 2 C 2.5101 -3.6899 0 0
M  V30 3 N 4.9986 -3.7114 0 0
M  V30 4 C 4.5481 -2.2311 0 0
M  V30 5 C 3.7328 -4.591 0 0
M  V30 6 C 1.9951 -1.0726 0 0
M  V30 7 C 1.0083 -3.9689 0 0
M  V30 8 C 0 -2.8318 0 0
M  V30 9 C 0.4934 -1.373 0 0
M  V30 10 O 3.7328 -6.1356 0 0
M  V30 11 O 5.492 -1.0083 0 0
M  V30 12 C 6.4574 -4.2262 0 0
M  V30 13 C 7.6159 -3.1965 0 0
M  V30 14 O 11.0484 -5.1702 0 0
M  V30 15 N 9.5252 -5.1702 0 0
M  V30 16 C 9.0747 -3.6899 0 0
M  V30 17 N 10.3405 -2.8103 0 0
M  V30 18 C 11.5418 -3.7114 0 0
M  V30 19 S 14.2449 -4.1833 0 0
M  V30 20 C 15.5106 -3.3038 0 0
M  V30 21 C 13.022 -3.2823 0 0
M  V30 22 C 13.5154 -1.8235 0 0
M  V30 23 C 15.0387 -1.845 0 0
M  V30 24 C 16.9694 -3.8186 0 0
M  V30 25 N 18.1278 -2.8103 0 0
M  V30 26 C 19.5224 -3.411 0 0
M  V30 27 C 20.8738 -2.6817 0 0
M  V30 28 C 21.1528 -1.1584 0 0
M  V30 29 C 20.1445 0 0 0
M  V30 30 C 18.5998 -0.0643 0 0
M  V30 31 C 17.7203 -1.3301 0 0
M  V30 32 C 16.0255 -7.2941 0 0
M  V30 33 C 17.4414 -8.1093 0 0
M  V30 34 C 18.75 -7.2941 0 0
M  V30 35 C 20.0587 -8.1093 0 0
M  V30 36 O 16.0255 -5.8138 0 0
M  V30 37 O 14.7168 -8.1093 0 0
M  V30 38 O 20.0587 -9.5896 0 0
M  V30 39 O 21.4532 -7.2941 0 0
M  V30 END ATOM
M  V30 BEGIN BOND
M  V30 1 2 1 2
M  V30 2 1 1 4
M  V30 3 1 1 6
M  V30 4 1 2 5
M  V30 5 1 2 7
M  V30 6 1 3 4
M  V30 7 1 3 5
M  V30 8 1 3 12
M  V30 9 2 4 11
M  V30 10 2 5 10
M  V30 11 2 6 9
M  V30 12 2 7 8
M  V30 13 1 8 9
M  V30 14 1 12 13
M  V30 15 1 13 16
M  V30 16 1 14 15
M  V30 17 1 14 18
M  V30 18 2 15 16
M  V30 19 1 16 17
M  V30 20 2 17 18
M  V30 21 1 18 21
M  V30 22 1 19 20
M  V30 23 1 19 21
M  V30 24 2 20 23
M  V30 25 1 20 24
M  V30 26 2 21 22
M  V30 27 1 22 23
M  V30 28 1 24 25
M  V30 29 1 25 26
M  V30 30 1 25 31
M  V30 31 1 26 27
M  V30 32 1 27 28
M  V30 33 1 28 29
M  V30 34 1 29 30
M  V30 35 1 30 31
M  V30 36 1 32 33
M  V30 37 1 32 37
M  V30 38 2 32 36
M  V30 39 2 33 34
M  V30 40 1 34 35
M  V30 41 1 35 39
M  V30 42 2 35 38
M  V30 END BOND
M  V30 END CTAB
M  END
