
  Mrv1805 11102316222D          

  0  0  0     0  0            999 V3000
M  V30 BEGIN CTAB
M  V30 COUNTS 24 25 0 0 0
M  V30 BEGIN ATOM
M  V30 1 C 18.7117 0 0 0
M  V30 2 C 18.7117 -1.5493 0 0
M  V30 3 C 17.3808 -2.3241 0 0
M  V30 4 C 17.3808 -3.8536 0 0
M  V30 5 C 18.7117 -4.6283 0 0
M  V30 6 C 18.7117 -6.1776 0 0
M  V30 7 C 17.3808 -6.9523 0 0
M  V30 8 C 16.0499 -6.1776 0 0
M  V30 9 C 16.0499 -4.6283 0 0
M  V30 10 C 14.6992 -3.8536 0 0
M  V30 11 O 13.3684 -4.6283 0 0
M  V30 12 C 12.0375 -3.8536 0 0
M  V30 13 C 10.6867 -4.6283 0 0
M  V30 14 O 9.3558 -3.8536 0 0
M  V30 15 C 8.025 -4.6283 0 0
M  V30 16 C 6.6941 -3.8536 0 0
M  V30 17 O 5.3434 -4.6283 0 0
M  V30 18 C 4.0125 -3.8536 0 0
M  V30 19 C 2.6816 -4.6283 0 0
M  V30 20 C 1.3309 -3.8536 0 0
M  V30 21 C 0 -4.6283 0 0
M  V30 22 O 17.6986 -8.462 0 0
M  V30 23 C 19.2281 -8.6208 0 0
M  V30 24 O 19.8638 -7.2106 0 0
M  V30 END ATOM
M  V30 BEGIN BOND
M  V30 1 1 1 2
M  V30 2 1 2 3
M  V30 3 1 3 4
M  V30 4 2 4 5
M  V30 5 1 4 9
M  V30 6 1 5 6
M  V30 7 2 6 7
M  V30 8 1 6 24
M  V30 9 1 7 8
M  V30 10 1 7 22
M  V30 11 2 8 9
M  V30 12 1 9 10
M  V30 13 1 10 11
M  V30 14 1 11 12
M  V30 15 1 12 13
M  V30 16 1 13 14
M  V30 17 1 14 15
M  V30 18 1 15 16
M  V30 19 1 16 17
M  V30 20 1 17 18
M  V30 21 1 18 19
M  V30 22 1 19 20
M  V30 23 1 20 21
M  V30 24 1 22 23
M  V30 25 1 23 24
M  V30 END BOND
M  V30 END CTAB
M  END
