
  Mrv1533009301517242D          

  0  0  0     0  0            999 V3000
M  V30 BEGIN CTAB
M  V30 COUNTS 40 44 0 0 1
M  V30 BEGIN ATOM
M  V30 1 O 6.961 -7.999 0 0
M  V30 2 C 5.4141 -7.999 0 0
M  V30 3 N 4.6407 -6.6557 0 0
M  V30 4 C 5.4141 -5.3327 0 0
M  V30 5 C 6.961 -5.3327 0 0 CFG=1
M  V30 6 C 7.7141 -6.6557 0 0
M  V30 7 C 8.5079 -7.999 0 0
M  V30 8 C 10.0548 -7.999 0 0
M  V30 9 N 10.8079 -6.6557 0 0
M  V30 10 C 10.0548 -5.3327 0 0
M  V30 11 C 8.5079 -5.3327 0 0
M  V30 12 O 4.6407 -9.3424 0 0
M  V30 13 C 7.7141 -4.0097 0 0
M  V30 14 C 6.961 -2.6663 0 0
M  V30 15 C 7.7141 -1.323 0 0
M  V30 16 C 6.961 0 0 0
M  V30 17 N 15.0211 -5.1292 0 0
M  V30 18 C 13.6778 -4.3557 0 0
M  V30 19 C 15.0211 -6.6557 0 0
M  V30 20 C 12.3548 -5.1292 0 0
M  V30 21 C 13.6778 -7.4292 0 0
M  V30 22 C 12.3548 -6.6557 0 0
M  V30 23 C 16.3442 -4.3557 0 0
M  V30 24 O 16.3442 -2.8089 0 0
M  V30 25 N 19.0105 -7.4292 0 0
M  V30 26 N 20.3538 -5.1292 0 0
M  V30 27 C 20.3538 -6.6557 0 0
M  V30 28 C 17.6875 -5.1292 0 0
M  V30 29 C 17.6875 -6.6557 0 0
M  V30 30 C 19.0105 -4.3557 0 0
M  V30 31 C 19.0105 -2.8089 0 0
M  V30 32 C 16.6495 -7.3681 0 0
M  V30 33 C 12.3548 -8.2026 0 0
M  V30 34 C 3.0938 -6.6557 0 0
M  V30 35 O 0.7735 -2.6663 0 0
M  V30 36 C 0 -4.0097 0 0
M  V30 37 C 0.7735 -5.3327 0 0
M  V30 38 C 2.3203 -5.3327 0 0
M  V30 39 C 3.0938 -4.0097 0 0
M  V30 40 C 2.3203 -2.6663 0 0
M  V30 END ATOM
M  V30 BEGIN BOND
M  V30 1 1 1 2
M  V30 2 1 1 6
M  V30 3 1 2 3
M  V30 4 2 2 12
M  V30 5 1 3 4
M  V30 6 1 3 34
M  V30 7 1 4 5
M  V30 8 1 5 6
M  V30 9 1 5 13 CFG=3
M  V30 10 1 6 7
M  V30 11 1 6 11
M  V30 12 1 7 8
M  V30 13 1 8 9
M  V30 14 1 9 10
M  V30 15 1 9 22
M  V30 16 1 10 11
M  V30 17 1 13 14
M  V30 18 1 14 15
M  V30 19 1 15 16
M  V30 20 1 17 18
M  V30 21 1 17 19
M  V30 22 1 17 23
M  V30 23 1 18 20
M  V30 24 1 19 21
M  V30 25 1 20 22
M  V30 26 1 21 22
M  V30 27 1 22 33
M  V30 28 2 23 24
M  V30 29 1 23 28
M  V30 30 2 25 27
M  V30 31 1 25 29
M  V30 32 1 26 27
M  V30 33 2 26 30
M  V30 34 2 28 29
M  V30 35 1 28 30
M  V30 36 1 29 32
M  V30 37 1 30 31
M  V30 38 1 34 38
M  V30 39 1 35 36
M  V30 40 1 35 40
M  V30 41 1 36 37
M  V30 42 1 37 38
M  V30 43 1 38 39
M  V30 44 1 39 40
M  V30 END BOND
M  V30 END CTAB
M  END
